@<TRIPOS>MOLECULE
New Entry
58   64    1
SMALL
USER_CHARGES


@<TRIPOS>ATOM
      1 CA8        -6.8530    1.6263    0.1668 C.ar      1 CY3        -0.1150 
      2 CA9        -5.4904    1.9493    0.0534 C.ar      1 CY3         0.1225 
      3 CA4        -5.0152    3.2527    0.1218 C.ar      1 CY3        -0.1150 
      4 CA5        -5.8917    4.3345    0.3110 C.ar      1 CY3        -0.1150 
      5 CA6        -7.2713    4.0367    0.4307 C.ar      1 CY3         0.0075 
      6 CA7        -7.7508    2.7022    0.3576 C.ar      1 CY3        -0.1150 
      7 CA3        -3.5138    3.2433   -0.0287 C.3       1 CY3         0.3307 
      8 CA2        -3.2537    1.7683   -0.2073 C.cat     1 CY3         0.2008 
      9 NA1        -4.3598    1.0964   -0.1396 N.pl3     1 CY3        -0.0657 
     10 CR1        -4.4183   -0.3877   -0.1211 C.3       1 CY3         0.2867 
     11 CR2        -3.0334   -1.0386    0.1203 C.3       1 CY3        -0.1200 
     12 CR3        -1.9666   -0.2936   -0.7019 C.3       1 CY3         0.2390 
     13 CX1        -1.9634    1.2113   -0.3946 C.2       1 CY3        -0.0690 
     14 OR         -0.6804   -0.9230   -0.6817 O.3       1 CY3        -0.4000 
     15 CR4         0.3204   -0.3536    0.1550 C.3       1 CY3         0.2390 
     16 CX3         0.4138    1.1564   -0.0581 C.2       1 CY3        -0.0690 
     17 CX2        -0.8251    1.8900   -0.1665 C.2       1 CY3        -0.1150 
     18 CR5         1.6629   -1.0716   -0.1268 C.3       1 CY3        -0.1200 
     19 CR6         2.8732   -0.3364    0.4828 C.3       1 CY3         0.1153 
     20 NB1         2.7993    1.0778    0.1489 N.pl3     1 CY3        -0.4533 
     21 CB2         1.6149    1.7643   -0.0403 C.2       1 CY3         0.0180 
     22 CB3         1.9466    3.2488   -0.1661 C.3       1 CY3        -0.0050 
     23 CB4         3.4451    3.2340    0.0403 C.ar      1 CY3        -0.1150 
     24 CB9         3.8953    1.9294    0.2298 C.ar      1 CY3         0.2000 
     25 CB8         5.2538    1.6431    0.4610 C.ar      1 CY3        -0.1150 
     26 CB7         6.1604    2.7268    0.4902 C.ar      1 CY3        -0.1150 
     27 CB6         5.6979    4.0524    0.2959 C.ar      1 CY3         0.0075 
     28 CB5         4.3296    4.3256    0.0657 C.ar      1 CY3        -0.1150 
     29 SA         -8.4444    5.3652    0.6685 S.3       1 CY3         1.3028 
     30 SB          6.8741    5.3983    0.3310 S.3       1 CY3         1.3028 
     31 OA2        -9.0420    5.4645   -0.8979 O.3       1 CY3        -0.5881 
     32 OA1        -9.5383    4.8966    1.5330 O.2       1 CY3        -0.5770 
     33 OA3        -7.7240    6.6174    0.9450 O.2       1 CY3        -0.5770 
     34 OB1         7.9658    5.0675    1.2597 O.2       1 CY3        -0.5770 
     35 OB2         7.4758    5.2542   -1.2305 O.3       1 CY3        -0.5881 
     36 OB3         6.1572    6.6803    0.4091 O.2       1 CY3        -0.5770 
     37 HA8        -7.2042    0.6065    0.1097 H         1 CY3         0.1150 
     38 HA5        -5.5230    5.3484    0.3647 H         1 CY3         0.1150 
     39 HA7        -8.8091    2.5047    0.4481 H         1 CY3         0.1150 
     40 H40        -3.0258    3.6257    0.8684 H         1 CY3         0.0600 
     41 H41        -3.1943    3.8083   -0.9050 H         1 CY3         0.0600 
     42 HR1A       -4.8300   -0.6889   -1.0849 H         1 CY3         0.0600 
     43 HR1B       -5.1247   -0.6813    0.6559 H         1 CY3         0.0600 
     44 HR2A       -3.0623   -2.0947   -0.1488 H         1 CY3         0.0600 
     45 HR2B       -2.7763   -0.9899    1.1792 H         1 CY3         0.0600 
     46 HR3        -2.2733   -0.3764   -1.7460 H         1 CY3         0.0300 
     47 HR4         0.0378   -0.5177    1.1960 H         1 CY3         0.0300 
     48 HX2        -0.8409    2.9390    0.0914 H         1 CY3         0.1150 
     49 HR5A        1.8072   -1.1261   -1.2068 H         1 CY3         0.0600 
     50 HR5B        1.6252   -2.1020    0.2273 H         1 CY3         0.0600 
     51 HR6A        3.8013   -0.7717    0.1119 H         1 CY3         0.0600 
     52 HR6B        2.8722   -0.4407    1.5682 H         1 CY3         0.0600 
     53 H53         1.4502    3.8361    0.6068 H         1 CY3         0.0600 
     54 H54         1.6839    3.6331   -1.1519 H         1 CY3         0.0600 
     55 HB7         5.5998    0.6311    0.6098 H         1 CY3         0.1150 
     56 HB8         7.2107    2.5406    0.6612 H         1 CY3         0.1150 
     57 HB5         3.9709    5.3336   -0.0823 H         1 CY3         0.1150 
     58 HOB         6.8397    5.5855   -1.8447 H         1 CY3         0.4318 
@<TRIPOS>BOND
     1    1    2 ar   
     2    1    6 ar   
     3    1   37 1    
     4    2    3 ar   
     5    2    9 1    
     6    3    4 ar   
     7    3    7 1    
     8    4    5 ar   
     9    4   38 1    
    10    5    6 ar   
    11    5   29 1    
    12    6   39 1    
    13    7    8 1    
    14    7   40 1    
    15    7   41 1    
    16    8    9 ar   
    17    8   13 1    
    18    9   10 1    
    19   10   11 1    
    20   10   42 1    
    21   10   43 1    
    22   11   12 1    
    23   11   44 1    
    24   11   45 1    
    25   12   13 1    
    26   12   14 1    
    27   12   46 1    
    28   13   17 2    
    29   14   15 1    
    30   15   16 1    
    31   15   18 1    
    32   15   47 1    
    33   16   17 1    
    34   16   21 2    
    35   17   48 1    
    36   18   19 1    
    37   18   49 1    
    38   18   50 1    
    39   19   20 1    
    40   19   51 1    
    41   19   52 1    
    42   20   21 1    
    43   20   24 1    
    44   21   22 1    
    45   22   23 1    
    46   22   53 1    
    47   22   54 1    
    48   23   24 ar   
    49   23   28 ar   
    50   24   25 ar   
    51   25   26 ar   
    52   25   55 1    
    53   26   27 ar   
    54   26   56 1    
    55   27   28 ar   
    56   27   30 1    
    57   28   57 1    
    58   29   31 1    
    59   29   32 2    
    60   29   33 2    
    61   30   34 2    
    62   30   35 1    
    63   30   36 2    
    64   35   58 1    
@<TRIPOS>SUBSTRUCTURE
     1 CY3         1 GROUP             0       ****    0 ROOT    
